LTspice 24.0.12 for Windows
Circuit: *LTspice
Start Time: Sun Oct 20 13:55:19 2024
solver = Normal
Maximum thread count: 12
tnom = 27
temp = 27
method = modified trap
WARNING: Less than two connections to node unconnected-_u3-ref-pad6_.  This node is used by r:u3:1.
Ignoring empty pin current: Ix(u3:compin)
Total elapsed time: 0.141 seconds.

